20
comment line
O 0.08643132820458989 2.95280904942 0.07832474613951701
O 0.9961217454129703 0.17689801802549462 0.9026933225975837
O 0.9961217454129703 1.7916413482545053 0.9026933225975837
O 2.5646031114489705 0.17689801802549462 2.324063413411584
O 2.5646031114489705 1.7916413482545053 2.324063413411584
O 1.6549126942405896 2.95280904942 1.4996948369535168
O 1.48205003783141 0.98426968314 1.3430453446744828
O 0.5723596206230295 2.1454373843054944 0.5186767682164161
O 0.5723596206230295 3.7601807145345054 0.5186767682164161
O 2.1408409866590294 2.1454373843054944 1.9400468590304158
O 2.1408409866590294 3.7601807145345054 1.9400468590304158
O 3.0505314038674096 0.98426968314 2.7644154354884827
Bi 1.7835244296592465 0.98426968314 1.616243798267455
Bi 0.2150430636232466 0.98426968314 0.19487370745345492
Bi 2.921919668448753 2.95280904942 2.647866474174545
Bi 1.3534383024127534 2.95280904942 1.226496383360545
Mn 0.0 0.0 0.0
Mn 0.0 1.96853936628 0.0
Mn 1.568481366036 0.0 1.421370090814
Mn 1.568481366036 1.96853936628 1.421370090814
